312
C4                                      
 C    1.233198    2.135930    1.667902
 C    3.699135    2.135928    1.667881
 C    2.466180    4.271628    1.667540
 C    1.233237    6.407469    1.667958
 C    6.165619    2.135933    1.667902
 C    4.932391    4.271766    1.669698
 C    3.699106    6.407476    1.667865
 C    2.466177    8.543209    1.667543
 C    1.233220   10.679071    1.667896
 C    8.631533    2.135912    1.667903
 C    7.398563    4.271617    1.667503
 C    6.165657    6.407473    1.667946
 C    4.932409    8.543348    1.669695
 C    3.699113   10.679057    1.667914
 C    2.466170   12.814785    1.667550
 C    1.233218   14.950633    1.667898
 C   11.098017    2.135923    1.667872
 C    9.864761    4.271785    1.669693
 C    8.631517    6.407500    1.667932
 C    7.398578    8.543213    1.667517
 C    6.165631   10.679107    1.667939
 C    4.932383   12.814932    1.669715
 C    3.699121   14.950651    1.667871
 C    2.466163   17.086346    1.667555
 C    1.233212   19.222197    1.667900
 C   13.563912    2.135935    1.667873
 C   12.330971    4.271643    1.667508
 C   11.098033    6.407475    1.667898
 C    9.864770    8.543360    1.669710
 C    8.631523   10.679095    1.667940
 C    7.398574   12.814806    1.667544
 C    6.165638   14.950676    1.667960
 C    4.932384   17.086492    1.669711
 C    3.699120   19.222213    1.667873
 C    2.466167   21.357915    1.667555
 C    1.233197   23.493784    1.667899
 C   16.030392    2.135926    1.667920
 C   14.797122    4.271780    1.669687
 C   13.563895    6.407518    1.667923
 C   12.330967    8.543217    1.667512
 C   11.098027   10.679055    1.667898
 C    9.864770   12.814936    1.669723
 C    8.631532   14.950658    1.667893
 C    7.398575   17.086362    1.667541
 C    6.165633   19.222235    1.667960
 C    4.932374   21.358052    1.669717
 C    3.699121   23.493809    1.667929
 C    2.466162   25.629495    1.667543
 C    1.233202   27.765376    1.667961
 C   18.496281    2.135927    1.667872
 C   17.263329    4.271635    1.667516
 C   16.030412    6.407457    1.667910
 C   14.797127    8.543356    1.669688
 C    9.864766   17.086499    1.669721
 C    8.631534   19.222215    1.667890
 C    7.398573   21.357920    1.667547
 C    6.165620   23.493788    1.667897
 C    4.932376   25.629621    1.669711
 C    3.699129   27.765383    1.667921
 C    2.466164    0.000039    1.667552
 C   20.962764    2.135912    1.667933
 C   19.729500    4.271778    1.669679
 C   18.496258    6.407514    1.667922
 C   17.263331    8.543211    1.667517
 C   11.098003   19.222215    1.667894
 C    9.864766   21.358057    1.669720
 C    8.631531   23.493784    1.667897
 C    7.398575   25.629491    1.667548
 C    6.165628   27.765380    1.667959
 C    4.932378    0.000164    1.669724
 C   23.428659    2.135921    1.667872
 C   22.195703    4.271628    1.667508
 C   20.962783    6.407467    1.667956
 C   19.729500    8.543355    1.669684
 C   18.496258   10.679101    1.667918
 C   13.563892   19.222220    1.667941
 C   12.330959   21.357917    1.667548
 C   11.098007   23.493782    1.667896
 C    9.864766   25.629628    1.669720
 C    8.631528   27.765366    1.667871
 C    7.398574    0.000043    1.667550
 C   25.895156    2.135915    1.667916
 C   24.661877    4.271784    1.669687
 C   23.428643    6.407512    1.667922
 C   22.195703    8.543207    1.667513
 C   20.962764   10.679069    1.667897
 C   19.729512   12.814918    1.669714
 C   16.030412   19.222197    1.667962
 C   14.797135   21.358045    1.669729
 C   13.563899   23.493780    1.667879
 C   12.330956   25.629477    1.667541
 C   11.098008   27.765366    1.667896
 C    9.864775    0.000185    1.669723
 C   28.361073    2.135930    1.667872
 C   27.128106    4.271628    1.667516
 C   25.895163    6.407458    1.667910
 C   24.661882    8.543364    1.669689
 C   23.428647   10.679096    1.667917
 C   22.195694   12.814781    1.667516
 C   20.962764   14.950633    1.667923
 C   19.729514   17.086483    1.669726
 C   18.496261   19.222201    1.667874
 C   17.263319   21.357915    1.667549
 C   16.030415   23.493764    1.667965
 C   14.797143   25.629623    1.669720
 C   13.563902   27.765358    1.667867
 C   12.330957    0.000039    1.667552
 C   -0.000071    4.271782    1.669675
 C   28.361050    6.407520    1.667922
 C   27.128111    8.543205    1.667514
 C   25.895160   10.679057    1.667921
 C   24.661884   12.814931    1.669690
 C   23.428649   14.950657    1.667919
 C   22.195694   17.086348    1.667514
 C   20.962785   19.222201    1.667963
 C   19.729509   21.358043    1.669722
 C   18.496260   23.493768    1.667876
 C   17.263329   25.629487    1.667549
 C   16.030380   27.765394    1.667952
 C   14.797130    0.000164    1.669725
 C   -0.000058    8.543355    1.669677
 C   28.361057   10.679090    1.667915
 C   27.128111   12.814780    1.667520
 C   25.895160   14.950621    1.667927
 C   24.661882   17.086490    1.669690
 C   23.428643   19.222220    1.667920
 C   22.195697   21.357915    1.667539
 C   20.962783   23.493770    1.667965
 C   19.729507   25.629619    1.669723
 C   18.496268   27.765348    1.667843
 C   17.263322    0.000043    1.667554
 C   -0.000065   12.814928    1.669680
 C   28.361059   14.950662    1.667919
 C   27.128108   17.086342    1.667519
 C   25.895172   19.222186    1.667961
 C   24.661898   21.358052    1.669714
 C   23.428638   23.493773    1.667857
 C   22.195703   25.629486    1.667539
 C   20.962764   27.765373    1.667963
 C   19.729509    0.000164    1.669721
 C   -0.000065   17.086485    1.669685
 C   28.361050   19.222226    1.667921
 C   27.128102   21.357906    1.667558
 C   25.895178   23.493763    1.667968
 C   24.661905   25.629621    1.669715
 C   23.428643   27.765335    1.667835
 C   22.195696    0.000032    1.667550
 C   -0.000046   21.358041    1.669723
 C   28.361057   23.493773    1.667871
 C   27.128099   25.629475    1.667556
 C   25.895169   27.765348    1.667967
 C   24.661884    0.000171    1.669732
 C   -0.000046   25.629623    1.669715
 C   28.361063   27.765357    1.667871
 C   27.128099    0.000000    1.667558
 C   -0.000060    0.000164    1.669720
 C    2.466166    2.847564    1.667532
 C    1.233231    4.983333    1.667962
 C    4.932381    2.847433    1.669699
 C    3.699125    4.983319    1.667888
 C    2.466175    7.119177    1.667521
 C    1.233239    9.254917    1.667966
 C    7.398582    2.847568    1.667513
 C    6.165644    4.983319    1.667951
 C    4.932403    7.119052    1.669685
 C    3.699107    9.254906    1.667868
 C    2.466173   11.390745    1.667513
 C    1.233233   13.526481    1.667964
 C    9.864761    2.847445    1.669687
 C    8.631514    4.983323    1.667982
 C    7.398569    7.119198    1.667505
 C    6.165662    9.254912    1.667950
 C    4.932386   11.390616    1.669672
 C    3.699098   13.526493    1.667947
 C    2.466173   15.662311    1.667509
 C    1.233210   17.798024    1.667927
 C   12.330965    2.847582    1.667515
 C   11.098033    4.983355    1.667959
 C    9.864746    7.119044    1.669683
 C    8.631522    9.254905    1.667891
 C    7.398579   11.390788    1.667506
 C    6.165646   13.526477    1.667927
 C    4.932390   15.662183    1.669671
 C    3.699096   17.798052    1.667946
 C    2.466165   19.933880    1.667508
 C    1.233222   22.069593    1.667981
 C   14.797132    2.847438    1.669694
 C   13.563888    4.983337    1.667959
 C   12.330947    7.119194    1.667506
 C   11.098038    9.254933    1.667966
 C    9.864751   11.390620    1.669692
 C    8.631505   13.526488    1.667958
 C    7.398595   15.662336    1.667511
 C    6.165640   17.798040    1.667926
 C    4.932384   19.933743    1.669671
 C    3.699102   22.069602    1.667922
 C    2.466147   24.205456    1.667512
 C    1.233225   26.341194    1.667982
 C   17.263338    2.847569    1.667523
 C   16.030420    4.983336    1.667969
 C   14.797122    7.119044    1.669688
 C   13.563878    9.254917    1.667960
 C    9.864765   15.662179    1.669693
 C    8.631504   17.798057    1.667956
 C    7.398592   19.933896    1.667513
 C    6.165631   22.069589    1.667923
 C    4.932369   24.205310    1.669683
 C    3.699085   26.341208    1.667960
 C    2.466166   28.477052    1.667512
 C    1.233207    0.711696    1.667946
 C   19.729505    2.847434    1.669688
 C   18.496244    4.983338    1.667959
 C   17.263314    7.119180    1.667517
 C   16.030422    9.254913    1.667959
 C   11.098024   17.798027    1.667921
 C    9.864771   19.933738    1.669680
 C    8.631518   22.069598    1.667921
 C    7.398572   24.205458    1.667509
 C    6.165638   26.341183    1.667924
 C    4.932377   28.476895    1.669683
 C    3.699107    0.711699    1.667933
 C   22.195703    2.847570    1.667517
 C   20.962781    4.983328    1.667961
 C   19.729505    7.119036    1.669679
 C   18.496268    9.254887    1.667899
 C   12.330943   19.933895    1.667507
 C   11.098015   22.069596    1.667922
 C    9.864769   24.205309    1.669682
 C    8.631522   26.341192    1.667913
 C    7.398588   28.477058    1.667500
 C    6.165632    0.711694    1.667946
 C   24.661879    2.847433    1.669696
 C   23.428647    4.983316    1.667928
 C   22.195690    7.119185    1.667508
 C   20.962781    9.254914    1.667960
 C   19.729498   11.390620    1.669679
 C   14.797121   19.933747    1.669696
 C   13.563893   22.069580    1.667910
 C   12.330959   24.205449    1.667497
 C   11.098014   26.341176    1.667922
 C    9.864776   28.476904    1.669669
 C    8.631524    0.711706    1.667923
 C   27.128108    2.847570    1.667524
 C   25.895172    4.983335    1.667969
 C   24.661875    7.119040    1.669687
 C   23.428656    9.254886    1.667900
 C   22.195685   11.390763    1.667503
 C   20.962760   13.526463    1.667939
 C   19.729504   15.662181    1.669700
 C   18.496249   17.798043    1.667946
 C   17.263331   19.933875    1.667512
 C   16.030394   22.069602    1.667939
 C   14.797135   24.205316    1.669686
 C   13.563874   26.341187    1.667944
 C   12.330961   28.477040    1.667496
 C   11.098017    0.711725    1.667945
 C   -0.000058    2.847428    1.669687
 C   28.361034    4.983332    1.667958
 C   27.128090    7.119185    1.667516
 C   25.895178    9.254912    1.667972
 C   24.661884   11.390611    1.669686
 C   23.428652   13.526451    1.667899
 C   22.195683   15.662325    1.667514
 C   20.962765   17.798029    1.667934
 C   19.729511   19.933738    1.669684
 C   18.496244   22.069605    1.667943
 C   17.263331   24.205448    1.667514
 C   16.030415   26.341196    1.667994
 C   14.797143   28.476890    1.669681
 C   13.563892    0.711693    1.667921
 C   -0.000060    7.119030    1.669677
 C   28.361047    9.254893    1.667902
 C   27.128099   11.390761    1.667516
 C   25.895153   13.526456    1.667937
 C   24.661886   15.662170    1.669686
 C   23.428624   17.798043    1.667958
 C   22.195687   19.933895    1.667515
 C   20.962769   22.069593    1.667937
 C   19.729507   24.205305    1.669687
 C   18.496240   26.341203    1.667934
 C   17.263342   28.477045    1.667500
 C   16.030392    0.711716    1.667955
 C   -0.000072   11.390609    1.669675
 C   28.361036   13.526480    1.667960
 C   27.128099   15.662322    1.667516
 C   25.895151   17.798027    1.667929
 C   24.661880   19.933738    1.669686
 C   23.428649   22.069589    1.667880
 C   22.195699   24.205456    1.667514
 C   20.962788   26.341197    1.667982
 C   19.729525   28.476901    1.669661
 C   18.496256    0.711704    1.667921
 C   -0.000069   15.662169    1.669675
 C   28.361038   17.798043    1.667958
 C   27.128097   19.933887    1.667519
 C   25.895165   22.069607    1.667995
 C   24.661891   24.205307    1.669683
 C   23.428633   26.341188    1.667856
 C   22.195713   28.477043    1.667490
 C   20.962757    0.711698    1.667950
 C   -0.000067   19.933738    1.669685
 C   28.361040   22.069596    1.667944
 C   27.128111   24.205448    1.667514
 C   25.895179   26.341208    1.667995
 C   24.661888   28.476894    1.669674
 C   23.428640    0.711697    1.667920
 C   -0.000058   24.205298    1.669668
 C   28.361033   26.341183    1.667945
 C   27.128111   28.477036    1.667513
 C   25.895151    0.711711    1.667956
 C   -0.000053   28.476890    1.669668
 C   28.361052    0.711693    1.667921
